
  ACD/Labs01252214083D

 29 28  0  0  0  0  0  0  0  0 30 V2000
   15.8632   -4.6489    0.8056 O   0  0  0  0  0  0  0  0  0  0  0  0
   16.5881   -5.6282    0.5135 C   0  0  0  0  0  0  0  0  0  0  0  0
   15.9512   -6.4204   -0.3661 C   0  0  0  0  0  0  0  0  0  0  0  0
   17.7139   -5.1921   -0.0279 C   0  0  0  0  0  0  0  0  0  0  0  0
   17.6802   -4.4231   -0.7694 O   0  0  0  0  0  0  0  0  0  0  0  0
   16.7864   -6.1413    1.3304 H   0  0  0  0  0  0  0  0  0  0  0  0
   15.0912   -4.9762    0.9213 H   0  0  0  0  0  0  0  0  0  0  0  0
   15.8321   -5.9465   -1.2189 H   0  0  0  0  0  0  0  0  0  0  0  0
   16.4957   -7.2248   -0.5101 H   0  0  0  0  0  0  0  0  0  0  0  0
   15.0684   -6.6779   -0.0209 H   0  0  0  0  0  0  0  0  0  0  0  0
   18.7737   -5.6535    0.2924 O   0  0  0  0  0  0  0  0  0  0  0  0
   19.7753   -5.1883   -0.2962 C   0  0  0  0  0  0  0  0  0  0  0  0
   19.8630   -3.8622   -0.0643 C   0  0  0  0  0  0  0  0  0  0  0  0
   20.8714   -5.7756    0.1505 C   0  0  0  0  0  0  0  0  0  0  0  0
   20.8172   -6.5854    0.8464 O   0  0  0  0  0  0  0  0  0  0  0  0
   19.6836   -5.3497   -1.2622 H   0  0  0  0  0  0  0  0  0  0  0  0
   19.9927   -3.6962    0.8940 H   0  0  0  0  0  0  0  0  0  0  0  0
   20.6301   -3.5034   -0.5640 H   0  0  0  0  0  0  0  0  0  0  0  0
   19.0416   -3.4111   -0.3569 H   0  0  0  0  0  0  0  0  0  0  0  0
   21.9240   -5.3693   -0.2510 O   0  0  0  0  0  0  0  0  0  0  0  0
   23.0094   -5.7263    0.2542 C   0  0  0  0  0  0  0  0  0  0  0  0
   23.4716   -6.8215   -0.3824 C   0  0  0  0  0  0  0  0  0  0  0  0
   23.8913   -4.7382    0.1323 C   0  0  0  0  0  0  0  0  0  0  0  0
   23.7323   -3.8196    0.6540 O   0  0  0  0  0  0  0  0  0  0  0  0
   22.8734   -5.9390    1.2075 H   0  0  0  0  0  0  0  0  0  0  0  0
   23.6341   -6.6233   -1.3304 H   0  0  0  0  0  0  0  0  0  0  0  0
   24.3122   -7.1018    0.0432 H   0  0  0  0  0  0  0  0  0  0  0  0
   22.8186   -7.5494   -0.3244 H   0  0  0  0  0  0  0  0  0  0  0  0
   24.6714   -4.8421   -0.4537 H   0  0  0  0  0  0  0  0  0  0  0  0
  1  2  1  0  0  0  0
  1  7  1  0  0  0  0
  2  3  1  0  0  0  0
  2  4  1  0  0  0  0
  2  6  1  0  0  0  0
  3  8  1  0  0  0  0
  3  9  1  0  0  0  0
  3 10  1  0  0  0  0
  4  5  2  0  0  0  0
  4 11  1  0  0  0  0
 11 12  1  0  0  0  0
 12 13  1  0  0  0  0
 12 14  1  0  0  0  0
 12 16  1  0  0  0  0
 13 17  1  0  0  0  0
 13 18  1  0  0  0  0
 13 19  1  0  0  0  0
 14 15  2  0  0  0  0
 14 20  1  0  0  0  0
 20 21  1  0  0  0  0
 21 22  1  0  0  0  0
 21 23  1  0  0  0  0
 21 25  1  0  0  0  0
 22 26  1  0  0  0  0
 22 27  1  0  0  0  0
 22 28  1  0  0  0  0
 23 24  2  0  0  0  0
 23 29  1  0  0  0  0
M  ZZC   1 1
M  ZZC   2 2
M  ZZC   3 3
M  ZZC   4 4
M  ZZC   5 5
M  ZZC   6 6
M  ZZC   7 7
M  ZZC   8 8
M  ZZC   9 9
M  ZZC  10 10
M  ZZC  11 1
M  ZZC  12 2
M  ZZC  13 3
M  ZZC  14 4
M  ZZC  15 5
M  ZZC  16 16
M  ZZC  17 17
M  ZZC  18 18
M  ZZC  19 19
M  ZZC  20 1
M  ZZC  21 2
M  ZZC  22 3
M  ZZC  23 4
M  ZZC  24 5
M  ZZC  25 25
M  ZZC  26 26
M  ZZC  27 27
M  ZZC  28 28
M  ZZC  29 29
M  END
