
  ACD/Labs01252213563D

 11 10  0  0  0  0  0  0  0  0  6 V2000
   18.6567   -4.4466    0.4153 O   0  0  0  0  0  0  0  0  0  0  0  0
   19.6817   -5.1657    0.4207 C   0  0  0  0  0  0  0  0  0  0  0  0
   19.5023   -6.2185   -0.4025 C   0  0  0  0  0  0  0  0  0  0  0  0
   20.7242   -4.4529    0.0037 C   0  0  0  0  0  0  0  0  0  0  0  0
   20.7596   -3.4019    0.1865 O   0  0  0  0  0  0  0  0  0  0  0  0
   19.8457   -5.4902    1.3336 H   0  0  0  0  0  0  0  0  0  0  0  0
   18.2066   -4.3053    1.1731 H   0  0  0  0  0  0  0  0  0  0  0  0
   19.5536   -5.9172   -1.3336 H   0  0  0  0  0  0  0  0  0  0  0  0
   20.2008   -6.8856   -0.2361 H   0  0  0  0  0  0  0  0  0  0  0  0
   18.6222   -6.6166   -0.2361 H   0  0  0  0  0  0  0  0  0  0  0  0
   21.5332   -4.7246   -0.4781 H   0  0  0  0  0  0  0  0  0  0  0  0
  1  2  1  0  0  0  0
  1  7  1  0  0  0  0
  2  3  1  0  0  0  0
  2  4  1  0  0  0  0
  2  6  1  0  0  0  0
  3  8  1  0  0  0  0
  3  9  1  0  0  0  0
  3 10  1  0  0  0  0
  4  5  2  0  0  0  0
  4 11  1  0  0  0  0
M  ZZC   1 1
M  ZZC   2 2
M  ZZC   3 3
M  ZZC   4 4
M  ZZC   5 5
M  END
